%nproc=40
%mem=50gb
# mp2/aug-cc-pVTZ Pop=ChelpG opt=z-matrix

Title: Rab = 2.2497 Optimizations

0 1
 F1
 X2                   1     1. 
 H3                   1    Rah      2     90. 
 F4                   1    Rab      2     90.      3     0.       0
 X5                   4     1.       1     90.      2     90.      0
 H5                   4    R1       5     90.      1    D1       0
       Variables:
  R1                   0.9248                 
  D1                  118.5767          
  Rah                   0.9278      
           
  Rab                   2.2497       

--Link1--
%nproc=40
%mem=50gb
# mp2/aug-cc-pVTZ Pop=ChelpG opt=z-matrix

Title: Rab = 2.3497 Optimizations

0 1
 F1
 X2                   1     1. 
 H3                   1    Rah      2     90. 
 F4                   1    Rab      2     90.      3     0.       0
 X5                   4     1.       1     90.      2     90.      0
 H5                   4    R1       5     90.      1    D1       0
       Variables:
  R1                   0.9248                 
  D1                  118.5767          
  Rah                   0.9278      
           
  Rab                   2.3497       

--Link1--
%nproc=40
%mem=50gb
# mp2/aug-cc-pVTZ Pop=ChelpG opt=z-matrix

Title: Rab = 2.4497 Optimizations

0 1
 F1
 X2                   1     1. 
 H3                   1    Rah      2     90. 
 F4                   1    Rab      2     90.      3     0.       0
 X5                   4     1.       1     90.      2     90.      0
 H5                   4    R1       5     90.      1    D1       0
       Variables:
  R1                   0.9248                 
  D1                  118.5767          
  Rah                   0.9278      
           
  Rab                   2.4497       

--Link1--
%nproc=40
%mem=50gb
# mp2/aug-cc-pVTZ Pop=ChelpG opt=z-matrix

Title: Rab = 2.5497 Optimizations

0 1
 F1
 X2                   1     1. 
 H3                   1    Rah      2     90. 
 F4                   1    Rab      2     90.      3     0.       0
 X5                   4     1.       1     90.      2     90.      0
 H5                   4    R1       5     90.      1    D1       0
       Variables:
  R1                   0.9248                 
  D1                  118.5767          
  Rah                   0.9278      
           
  Rab                   2.5497       

--Link1--
%nproc=40
%mem=50gb
# mp2/aug-cc-pVTZ Pop=ChelpG opt=z-matrix

Title: Rab = 2.6497 Optimizations

0 1
 F1
 X2                   1     1. 
 H3                   1    Rah      2     90. 
 F4                   1    Rab      2     90.      3     0.       0
 X5                   4     1.       1     90.      2     90.      0
 H5                   4    R1       5     90.      1    D1       0
       Variables:
  R1                   0.9248                 
  D1                  118.5767          
  Rah                   0.9278      
           
  Rab                   2.6497       

--Link1--
%nproc=40
%mem=50gb
# mp2/aug-cc-pVTZ Pop=ChelpG opt=z-matrix

Title: Rab = 2.7497 Optimizations

0 1
 F1
 X2                   1     1. 
 H3                   1    Rah      2     90. 
 F4                   1    Rab      2     90.      3     0.       0
 X5                   4     1.       1     90.      2     90.      0
 H5                   4    R1       5     90.      1    D1       0
       Variables:
  R1                   0.9248                 
  D1                  118.5767          
  Rah                   0.9278      
           
  Rab                   2.7497       

--Link1--
%nproc=40
%mem=50gb
# mp2/aug-cc-pVTZ Pop=ChelpG opt=z-matrix

Title: Rab = 2.8497 Optimizations

0 1
 F1
 X2                   1     1. 
 H3                   1    Rah      2     90. 
 F4                   1    Rab      2     90.      3     0.       0
 X5                   4     1.       1     90.      2     90.      0
 H5                   4    R1       5     90.      1    D1       0
       Variables:
  R1                   0.9248                 
  D1                  118.5767          
  Rah                   0.9278      
           
  Rab                   2.8497       

--Link1--
%nproc=40
%mem=50gb
# mp2/aug-cc-pVTZ Pop=ChelpG opt=z-matrix

Title: Rab = 2.9497 Optimizations

0 1
 F1
 X2                   1     1. 
 H3                   1    Rah      2     90. 
 F4                   1    Rab      2     90.      3     0.       0
 X5                   4     1.       1     90.      2     90.      0
 H5                   4    R1       5     90.      1    D1       0
       Variables:
  R1                   0.9248                 
  D1                  118.5767          
  Rah                   0.9278      
           
  Rab                   2.9497       

--Link1--
%nproc=40
%mem=50gb
# mp2/aug-cc-pVTZ Pop=ChelpG opt=z-matrix

Title: Rab = 3.0497 Optimizations

0 1
 F1
 X2                   1     1. 
 H3                   1    Rah      2     90. 
 F4                   1    Rab      2     90.      3     0.       0
 X5                   4     1.       1     90.      2     90.      0
 H5                   4    R1       5     90.      1    D1       0
       Variables:
  R1                   0.9248                 
  D1                  118.5767          
  Rah                   0.9278      
           
  Rab                   3.0497       

--Link1--
%nproc=40
%mem=50gb
# mp2/aug-cc-pVTZ Pop=ChelpG opt=z-matrix

Title: Rab = 3.1497 Optimizations

0 1
 F1
 X2                   1     1. 
 H3                   1    Rah      2     90. 
 F4                   1    Rab      2     90.      3     0.       0
 X5                   4     1.       1     90.      2     90.      0
 H5                   4    R1       5     90.      1    D1       0
       Variables:
  R1                   0.9248                 
  D1                  118.5767          
  Rah                   0.9278      
           
  Rab                   3.1497       

--Link1--
%nproc=40
%mem=50gb
# mp2/aug-cc-pVTZ Pop=ChelpG opt=z-matrix

Title: Rab = 3.2497 Optimizations

0 1
 F1
 X2                   1     1. 
 H3                   1    Rah      2     90. 
 F4                   1    Rab      2     90.      3     0.       0
 X5                   4     1.       1     90.      2     90.      0
 H5                   4    R1       5     90.      1    D1       0
       Variables:
  R1                   0.9248                 
  D1                  118.5767          
  Rah                   0.9278      
           
  Rab                   3.2497       

--Link1--
%nproc=40
%mem=50gb
# mp2/aug-cc-pVTZ Pop=ChelpG opt=z-matrix

Title: Rab = 3.3497 Optimizations

0 1
 F1
 X2                   1     1. 
 H3                   1    Rah      2     90. 
 F4                   1    Rab      2     90.      3     0.       0
 X5                   4     1.       1     90.      2     90.      0
 H5                   4    R1       5     90.      1    D1       0
       Variables:
  R1                   0.9248                 
  D1                  118.5767          
  Rah                   0.9278      
           
  Rab                   3.3497       

--Link1--
%nproc=40
%mem=50gb
# mp2/aug-cc-pVTZ Pop=ChelpG opt=z-matrix

Title: Rab = 3.4497 Optimizations

0 1
 F1
 X2                   1     1. 
 H3                   1    Rah      2     90. 
 F4                   1    Rab      2     90.      3     0.       0
 X5                   4     1.       1     90.      2     90.      0
 H5                   4    R1       5     90.      1    D1       0
       Variables:
  R1                   0.9248                 
  D1                  118.5767          
  Rah                   0.9278      
           
  Rab                   3.4497       

--Link1--
%nproc=40
%mem=50gb
# mp2/aug-cc-pVTZ Pop=ChelpG opt=z-matrix

Title: Rab = 3.5497 Optimizations

0 1
 F1
 X2                   1     1. 
 H3                   1    Rah      2     90. 
 F4                   1    Rab      2     90.      3     0.       0
 X5                   4     1.       1     90.      2     90.      0
 H5                   4    R1       5     90.      1    D1       0
       Variables:
  R1                   0.9248                 
  D1                  118.5767          
  Rah                   0.9278      
           
  Rab                   3.5497       

--Link1--
%nproc=40
%mem=50gb
# mp2/aug-cc-pVTZ Pop=ChelpG opt=z-matrix

Title: Rab = 3.6497 Optimizations

0 1
 F1
 X2                   1     1. 
 H3                   1    Rah      2     90. 
 F4                   1    Rab      2     90.      3     0.       0
 X5                   4     1.       1     90.      2     90.      0
 H5                   4    R1       5     90.      1    D1       0
       Variables:
  R1                   0.9248                 
  D1                  118.5767          
  Rah                   0.9278      
           
  Rab                   3.6497       

--Link1--
%nproc=40
%mem=50gb
# mp2/aug-cc-pVTZ Pop=ChelpG opt=z-matrix

Title: Rab = 3.7497 Optimizations

0 1
 F1
 X2                   1     1. 
 H3                   1    Rah      2     90. 
 F4                   1    Rab      2     90.      3     0.       0
 X5                   4     1.       1     90.      2     90.      0
 H5                   4    R1       5     90.      1    D1       0
       Variables:
  R1                   0.9248                 
  D1                  118.5767          
  Rah                   0.9278      
           
  Rab                   3.7497       

--Link1--
%nproc=40
%mem=50gb
# mp2/aug-cc-pVTZ Pop=ChelpG opt=z-matrix

Title: Rab = 3.9497 Optimizations

0 1
 F1
 X2                   1     1. 
 H3                   1    Rah      2     90. 
 F4                   1    Rab      2     90.      3     0.       0
 X5                   4     1.       1     90.      2     90.      0
 H5                   4    R1       5     90.      1    D1       0
       Variables:
  R1                   0.9248                 
  D1                  118.5767          
  Rah                   0.9278      
           
  Rab                   3.9497       

--Link1--
%nproc=40
%mem=50gb
# mp2/aug-cc-pVTZ Pop=ChelpG opt=z-matrix

Title: Rab = 4.1497 Optimizations

0 1
 F1
 X2                   1     1. 
 H3                   1    Rah      2     90. 
 F4                   1    Rab      2     90.      3     0.       0
 X5                   4     1.       1     90.      2     90.      0
 H5                   4    R1       5     90.      1    D1       0
       Variables:
  R1                   0.9248                 
  D1                  118.5767          
  Rah                   0.9278      
           
  Rab                   4.1497       

--Link1--
%nproc=40
%mem=50gb
# mp2/aug-cc-pVTZ Pop=ChelpG opt=z-matrix

Title: Rab = 4.3497 Optimizations

0 1
 F1
 X2                   1     1. 
 H3                   1    Rah      2     90. 
 F4                   1    Rab      2     90.      3     0.       0
 X5                   4     1.       1     90.      2     90.      0
 H5                   4    R1       5     90.      1    D1       0
       Variables:
  R1                   0.9248                 
  D1                  118.5767          
  Rah                   0.9278      
           
  Rab                   4.3497       

--Link1--
%nproc=40
%mem=50gb
# mp2/aug-cc-pVTZ Pop=ChelpG opt=z-matrix

Title: Rab = 4.5497 Optimizations

0 1
 F1
 X2                   1     1. 
 H3                   1    Rah      2     90. 
 F4                   1    Rab      2     90.      3     0.       0
 X5                   4     1.       1     90.      2     90.      0
 H5                   4    R1       5     90.      1    D1       0
       Variables:
  R1                   0.9248                 
  D1                  118.5767          
  Rah                   0.9278      
           
  Rab                   4.5497       

--Link1--
%nproc=40
%mem=50gb
# mp2/aug-cc-pVTZ Pop=ChelpG opt=z-matrix

Title: Rab = 4.7497 Optimizations

0 1
 F1
 X2                   1     1. 
 H3                   1    Rah      2     90. 
 F4                   1    Rab      2     90.      3     0.       0
 X5                   4     1.       1     90.      2     90.      0
 H5                   4    R1       5     90.      1    D1       0
       Variables:
  R1                   0.9248                 
  D1                  118.5767          
  Rah                   0.9278      
           
  Rab                   4.7497       

--Link1--
%nproc=40
%mem=50gb
# mp2/aug-cc-pVTZ Pop=ChelpG opt=z-matrix

Title: Rab = 4.9497 Optimizations

0 1
 F1
 X2                   1     1. 
 H3                   1    Rah      2     90. 
 F4                   1    Rab      2     90.      3     0.       0
 X5                   4     1.       1     90.      2     90.      0
 H5                   4    R1       5     90.      1    D1       0
       Variables:
  R1                   0.9248                 
  D1                  118.5767          
  Rah                   0.9278      
           
  Rab                   4.9497       

--Link1--
%nproc=40
%mem=50gb
# mp2/aug-cc-pVTZ Pop=ChelpG opt=z-matrix

Title: Rab = 5.1497 Optimizations

0 1
 F1
 X2                   1     1. 
 H3                   1    Rah      2     90. 
 F4                   1    Rab      2     90.      3     0.       0
 X5                   4     1.       1     90.      2     90.      0
 H5                   4    R1       5     90.      1    D1       0
       Variables:
  R1                   0.9248                 
  D1                  118.5767          
  Rah                   0.9278      
           
  Rab                   5.1497       

--Link1--
%nproc=40
%mem=50gb
# mp2/aug-cc-pVTZ Pop=ChelpG opt=z-matrix

Title: Rab = 5.3497 Optimizations

0 1
 F1
 X2                   1     1. 
 H3                   1    Rah      2     90. 
 F4                   1    Rab      2     90.      3     0.       0
 X5                   4     1.       1     90.      2     90.      0
 H5                   4    R1       5     90.      1    D1       0
       Variables:
  R1                   0.9248                 
  D1                  118.5767          
  Rah                   0.9278      
           
  Rab                   5.3497       

--Link1--
%nproc=40
%mem=50gb
# mp2/aug-cc-pVTZ Pop=ChelpG opt=z-matrix

Title: Rab = 5.5497 Optimizations

0 1
 F1
 X2                   1     1. 
 H3                   1    Rah      2     90. 
 F4                   1    Rab      2     90.      3     0.       0
 X5                   4     1.       1     90.      2     90.      0
 H5                   4    R1       5     90.      1    D1       0
       Variables:
  R1                   0.9248                 
  D1                  118.5767          
  Rah                   0.9278      
           
  Rab                   5.5497       

--Link1--
%nproc=40
%mem=50gb
# mp2/aug-cc-pVTZ Pop=ChelpG opt=z-matrix

Title: Rab = 5.7497 Optimizations

0 1
 F1
 X2                   1     1. 
 H3                   1    Rah      2     90. 
 F4                   1    Rab      2     90.      3     0.       0
 X5                   4     1.       1     90.      2     90.      0
 H5                   4    R1       5     90.      1    D1       0
       Variables:
  R1                   0.9248                 
  D1                  118.5767          
  Rah                   0.9278      
           
  Rab                   5.7497       

--Link1--
%nproc=40
%mem=50gb
# mp2/aug-cc-pVTZ Pop=ChelpG opt=z-matrix

Title: Rab = 6.7497 Optimizations

0 1
 F1
 X2                   1     1. 
 H3                   1    Rah      2     90. 
 F4                   1    Rab      2     90.      3     0.       0
 X5                   4     1.       1     90.      2     90.      0
 H5                   4    R1       5     90.      1    D1       0
       Variables:
  R1                   0.9248                 
  D1                  118.5767          
  Rah                   0.9278      
           
  Rab                   6.7497       

--Link1--
%nproc=40
%mem=50gb
# mp2/aug-cc-pVTZ Pop=ChelpG opt=z-matrix

Title: Rab = 7.7497 Optimizations

0 1
 F1
 X2                   1     1. 
 H3                   1    Rah      2     90. 
 F4                   1    Rab      2     90.      3     0.       0
 X5                   4     1.       1     90.      2     90.      0
 H5                   4    R1       5     90.      1    D1       0
       Variables:
  R1                   0.9248                 
  D1                  118.5767          
  Rah                   0.9278      
           
  Rab                   7.7497       

--Link1--
%nproc=40
%mem=50gb
# mp2/aug-cc-pVTZ Pop=ChelpG opt=z-matrix

Title: Rab = 8.7497 Optimizations

0 1
 F1
 X2                   1     1. 
 H3                   1    Rah      2     90. 
 F4                   1    Rab      2     90.      3     0.       0
 X5                   4     1.       1     90.      2     90.      0
 H5                   4    R1       5     90.      1    D1       0
       Variables:
  R1                   0.9248                 
  D1                  118.5767          
  Rah                   0.9278      
           
  Rab                   8.7497       

--Link1--
%nproc=40
%mem=50gb
# mp2/aug-cc-pVTZ Pop=ChelpG opt=z-matrix

Title: Rab = 9.7497 Optimizations

0 1
 F1
 X2                   1     1. 
 H3                   1    Rah      2     90. 
 F4                   1    Rab      2     90.      3     0.       0
 X5                   4     1.       1     90.      2     90.      0
 H5                   4    R1       5     90.      1    D1       0
       Variables:
  R1                   0.9248                 
  D1                  118.5767          
  Rah                   0.9278      
           
  Rab                   9.7497       

--Link1--
%nproc=40
%mem=50gb
# mp2/aug-cc-pVTZ Pop=ChelpG opt=z-matrix

Title: Rab = 10.7497 Optimizations

0 1
 F1
 X2                   1     1. 
 H3                   1    Rah      2     90. 
 F4                   1    Rab      2     90.      3     0.       0
 X5                   4     1.       1     90.      2     90.      0
 H5                   4    R1       5     90.      1    D1       0
       Variables:
  R1                   0.9248                 
  D1                  118.5767          
  Rah                   0.9278      
           
  Rab                   10.7497       

--Link1--
%nproc=40
%mem=50gb
# mp2/aug-cc-pVTZ Pop=ChelpG opt=z-matrix

Title: Rab = 12.7497 Optimizations

0 1
 F1
 X2                   1     1. 
 H3                   1    Rah      2     90. 
 F4                   1    Rab      2     90.      3     0.       0
 X5                   4     1.       1     90.      2     90.      0
 H5                   4    R1       5     90.      1    D1       0
       Variables:
  R1                   0.9248                 
  D1                  118.5767          
  Rah                   0.9278      
           
  Rab                   12.7497       

--Link1--
%nproc=40
%mem=50gb
# mp2/aug-cc-pVTZ Pop=ChelpG opt=z-matrix

Title: Rab = 14.7497 Optimizations

0 1
 F1
 X2                   1     1. 
 H3                   1    Rah      2     90. 
 F4                   1    Rab      2     90.      3     0.       0
 X5                   4     1.       1     90.      2     90.      0
 H5                   4    R1       5     90.      1    D1       0
       Variables:
  R1                   0.9248                 
  D1                  118.5767          
  Rah                   0.9278      
           
  Rab                   14.7497       

--Link1--
%nproc=40
%mem=50gb
# mp2/aug-cc-pVTZ Pop=ChelpG opt=z-matrix

Title: Rab = 16.7497 Optimizations

0 1
 F1
 X2                   1     1. 
 H3                   1    Rah      2     90. 
 F4                   1    Rab      2     90.      3     0.       0
 X5                   4     1.       1     90.      2     90.      0
 H5                   4    R1       5     90.      1    D1       0
       Variables:
  R1                   0.9248                 
  D1                  118.5767          
  Rah                   0.9278      
           
  Rab                   16.7497       

--Link1--
%nproc=40
%mem=50gb
# mp2/aug-cc-pVTZ Pop=ChelpG opt=z-matrix

Title: Rab = 18.7497 Optimizations

0 1
 F1
 X2                   1     1. 
 H3                   1    Rah      2     90. 
 F4                   1    Rab      2     90.      3     0.       0
 X5                   4     1.       1     90.      2     90.      0
 H5                   4    R1       5     90.      1    D1       0
       Variables:
  R1                   0.9248                 
  D1                  118.5767          
  Rah                   0.9278      
           
  Rab                   18.7497       

--Link1--
%nproc=40
%mem=50gb
# mp2/aug-cc-pVTZ Pop=ChelpG opt=z-matrix

Title: Rab = 20.7497 Optimizations

0 1
 F1
 X2                   1     1. 
 H3                   1    Rah      2     90. 
 F4                   1    Rab      2     90.      3     0.       0
 X5                   4     1.       1     90.      2     90.      0
 H5                   4    R1       5     90.      1    D1       0
       Variables:
  R1                   0.9248                 
  D1                  118.5767          
  Rah                   0.9278      
           
  Rab                   20.7497       

